Sistemas teste e codigos/ED_piorCaso/Sistemas/107barras_modificado.cdf
 0 /0 /0  Sistema-Teste de 107  100.0                                                                                         
BUS DATA FOLLOWS                       107 ITEMS                                                                              
  12  LCBARRET-4G  1     2  1.000    -32      0.0       0.0       0    -283     1.0            420    -540     0.0     0.0  0.0
  16  FURNAS---5G  1     2  1.000    -33      0.0       0.0   566.8    -356     1.0            480    -720     0.0     0.0  0.0
  18  ITUMBIAR-6G  1     3  1.020    -24      0.0       0.0     973    -546     1.0            600    -546     0.0     0.0  0.0
  20  MARIMBON-5G  1     2  1.010    -28      0.0       0.0   631.5    -521     1.0            640    -640     0.0     0.0  0.0
  21  MANSO----3G  3     2  1.000   44.6      0.0       0.0   104.7     -80     1.0             84     -80     0.0     0.0  0.0
  22  M.MOR.A--3G  1     2  1.000    -30      0.0       0.0   72.27   -43.6     1.0            126    -120     0.0     0.0  0.0
  35  CORUMBA--2G  1     2  1.000    -26      0.0       0.0   118.7    -125     1.0            180    -180     0.0     0.0  0.0
  48  IBIUNA---4C  1     2  1.000    -44      0.0       0.0       0    -780     1.0           1200   -1080     0.0     0.0  0.0
  86  IBIUNA---34  1     0  1.056    -44       66       1.2     0.0     0.0     1.0            0.0     0.0     0.0     0.0  0.0
 100  MARIMBON-50  1     0  1.078    -32      0.0       0.0     0.0     0.0     1.0            0.0     0.0     0.0     0.0  0.0
 101  ARARAQUA-50  1     0  1.117    -38      0.0       0.0     0.0     0.0     1.0            0.0     0.0     0.0      -2  0.0
 102  POCOS----50  1     0  1.129    -43      0.0       0.0     0.0     0.0     1.0            0.0     0.0     0.0      -1  0.0
 103  CAMPINAS-50  1     0  1.133    -44      0.0       0.0     0.0     0.0     1.0            0.0     0.0     0.0     0.0  0.0
 104  C.PAULIS-50  1     0  1.154    -50      910       235     0.0     0.0     1.0            0.0     0.0     0.0     0.0  0.0
 106  ADRIANO--50  1     0  1.142    -51      0.0       0.0     0.0     0.0     1.0            0.0     0.0     0.0      -1  0.0
 120  P.CALDAS-34  1     0  1.092    -43      180        90     0.0     0.0     1.0            0.0     0.0     0.0     0.0  0.0
 122  IBIUNA---50  1     0  1.113    -43      200        38     0.0     0.0     1.0            0.0     0.0     0.0     0.0  0.0
 123  CAMPINAS-34  1     0  1.095    -47      450       175     0.0     0.0     1.0            0.0     0.0     0.0     0.0  0.0
 126  GUARULHOS34  1     0  1.067    -45      290        95     0.0     0.0     1.0            0.0     0.0     0.0     0.0  0.0
 131  M.MORAES-34  1     0  1.041    -33      0.0       0.0     0.0     0.0     1.0            0.0     0.0     0.0     0.0  0.0
 134  LBARRETO-34  1     0  1.037    -32      0.0       0.0     0.0     0.0     1.0            0.0     0.0     0.0     0.0  0.0
 136  FURNAS---34  1     0  1.058    -38       54        23     0.0     0.0     1.0            0.0     0.0     0.0     0.0  0.0
 138  ITUTINGA-34  1     0  1.108    -46       72        34     0.0     0.0     1.0            0.0     0.0     0.0     0.0  0.0
 140  ADRIANO--34  1     0  1.115    -53      700       250     0.0     0.0     1.0            0.0     0.0     0.0     0.0  0.0
 210  ITUMBIARA50  1     0  1.076    -27      0.0       0.0     0.0     0.0     1.0            0.0     0.0     0.0     0.0  0.0
 213  MARIMBON-34  1     0  1.070    -32       93        39     0.0     0.0     1.0            0.0     0.0     0.0     0.0  0.0
 216  PCOLOMBIA34  1     0  1.066    -31       53        25     0.0     0.0     1.0            0.0     0.0     0.0     0.0  0.0
 217  ITUMBIARA34  1     0  1.085    -29      364        58     0.0     0.0     1.0            0.0     0.0     0.0     0.0  0.0
 218  BANDEIRA-34  1     0  1.081    -35      600       200     0.0     0.0     1.0            0.0     0.0     0.0     0.0  0.0
 219  B.SUL----34  1     0  1.098    -33      0.0       0.0     0.0     0.0     1.0            0.0     0.0     0.0     0.0  0.0
 220  CORUMBA--34  1     0  1.084    -29      0.0       0.0     0.0     0.0     1.0            0.0     0.0     0.0     0.0  0.0
 225  ITUMBIARA23  1     0  1.000    -25      0.0       0.0     0.0     0.0     1.0            0.0     0.0     0.0     0.0  0.0
 228  B.SUL----23  1     0  1.131    -27       86        34     0.0     0.0     1.0            0.0     0.0     0.0     0.0  0.0
 231  R.VERDE-230  3     0  1.154   -4.9     89.7      31.9     0.0     0.0     1.0            0.0     0.0     0.0     0.0  0.0
 233  SAMAMBAI-50  1     0  1.103    -32      0.0       0.0     0.0     0.0     1.0            0.0     0.0     0.0     0.0  0.0
 234  SAMAMBAI-34  1     0  1.095    -34     1000       350     0.0     0.0     1.0            0.0     0.0     0.0     0.0  0.0
 300  EMBORCAC-3G  1     2  1.020    -22      0.0       0.0   477.4    -360     1.0            392    -440     0.0     0.0  0.0
 301  JAGUARA--4G  1     2  1.010    -25      0.0       0.0   254.1    -140     1.0            140    -140     0.0     0.0  0.0
 302  N.PONTE--3G  1     2  1.020    -22      0.0       0.0   350.5    -150     1.0            150    -150     0.0     0.0  0.0
 303  S.SIMAO--4G  1     2  1.020    -29      0.0       0.0       0    -360     1.0            600    -600     0.0     0.0  0.0
 305  V.GRANDE-4G  1     2  1.000    -27      0.0       0.0   264.7    -110     1.0            120    -120     0.0     0.0  0.0
 320  EMBORCAC-50  1     0  1.070    -26      0.0       0.0     0.0     0.0     1.0            0.0     0.0     0.0     0.0  0.0
 325  JAGUARA--50  1     0  1.057    -28      0.0       0.0     0.0     0.0     1.0            0.0     0.0     0.0     0.0  0.0
 326  JAGUARA--34  1     0  1.044    -31      274       104     0.0     0.0     1.0            0.0     0.0     0.0     0.0  0.0
 360  NPONTE---50  1     0  1.062    -26      0.0       0.0     0.0     0.0     1.0            0.0     0.0     0.0     0.0  0.0
 370  SSIMAO---50  1     0  1.057    -29      0.0       0.0     0.0     0.0     1.0            0.0     0.0     0.0     0.0  0.0
 396  VGRANDE--34  1     0  1.051    -30      0.0       0.0     0.0     0.0     1.0            0.0     0.0     0.0     0.0  0.0
 500  A.VERMEL-4G  1     2  1.020    -28      0.0       0.0   527.9    -208     1.0            540    -540     0.0     0.0  0.0
 535  AVERMELHA50  1     0  1.042    -31      0.0       0.0     0.0     0.0     1.0            0.0     0.0     0.0     0.0  0.0
 536  AVERMELH-44  1     0  1.030    -34      700       150     0.0     0.0     1.0            0.0     0.0     0.0     0.0  0.0
 800  GBMUNHOZ-2G  2     2  1.020    -15      0.0       0.0   838.5    -185     1.0            800    -800     0.0     0.0  0.0
 808  SCAXIAS--4G  2     2  1.020     -4      0.0       0.0    1108   -17.2     1.0            600    -600     0.0     0.0  0.0
 810  SSEGREDO-4G  2     2  1.020    -11      0.0       0.0    1172    -366     1.0            532    -400     0.0     0.0  0.0
 814  BATEIAS--23  2     0  1.000    -40    735.4       191     0.0     0.0     1.0            0.0     0.0     0.0     0.0  0.0
 824  GBMUNHOZ-50  2     0  1.085    -23      0.0       0.0     0.0     0.0     1.0            0.0     0.0     0.0     0.0  0.0
 834  S.MATEUS-23  2     0  1.058    -31     13.4       4.2     0.0     0.0     1.0            0.0     0.0     0.0     0.0  0.0
 839  CASCAVEL-23  2     0  0.999    -13      0.0       0.0     0.0     0.0     1.0            0.0     0.0     0.0     0.0  0.0
 840  CASCAVEL-13  2     0  0.999    -16      159        36     0.0     0.0     1.0            0.0     0.0     0.0     0.0  0.0
 848  FCHOPIM--13  2     0  1.012    -11       94        18     0.0     0.0     1.0            0.0     0.0     0.0     0.0  0.0
 856  SEGREDO--50  2     0  1.064    -17      0.0       0.0     0.0     0.0     1.0            0.0     0.0     0.0     0.0  0.0
 895  BATEIAS--50  2     0  1.111    -38      0.0       0.0     0.0     0.0     1.0            0.0     0.0     0.0     0.0  0.0
 896  CASCAVELO50  2     0  1.041    -11      0.0       0.0     0.0     0.0     1.0            0.0     0.0     0.0     0.0  0.0
 897  SCAXIAS--50  2     0  1.052    -10      0.0       0.0     0.0     0.0     1.0            0.0     0.0     0.0     0.0  0.0
 898  FCHOPIM--23  2     0  1.012   -7.9      0.0       0.0     0.0     0.0     1.0            0.0     0.0     0.0     0.0  0.0
 904  ITA------4G  2     2  1.020    -23      0.0       0.0   360.8    -475     1.0            475    -475     0.0     0.0  0.0
 915  MACHADIN-2G  2     2  1.020    -21      0.0       0.0   498.6    -431     1.0            465    -516     0.0     0.0  0.0
 919  SOSOR1A4-4G  2     2  1.000  -0.19      0.0       0.0   685.9    12.8     1.0            220    -148     0.0     0.0  0.0
 925  SSANTIAG-3G  2     2  1.020   -9.1      0.0       0.0     738    -126     1.0            420    -440     0.0     0.0  0.0
 933  AREIA----50  2     0  1.086    -23      0.0       0.0     0.0     0.0     1.0            0.0     0.0     0.0     0.0  0.0
 934  AREIA----23  2     0  1.000    -21      237        59     0.0     0.0     1.0            0.0     0.0     0.0     0.0  0.0
 938  BLUMENAU-50  2     0  1.119    -40      0.0       0.0     0.0     0.0     1.0            0.0     0.0     0.0     0.0  0.0
 939  BLUMENAU-23  2     0  1.000    -42     1149     53.06     0.0     0.0     1.0            0.0     0.0     0.0     0.0  0.0
 955  CNOVOS---50  2     0  1.129    -29      0.0       0.0     0.0     0.0     1.0            0.0     0.0     0.0     0.0  0.0
 959  CURITIBA-50  2     0  1.103    -38      0.0       0.0     0.0     0.0     1.0            0.0     0.0     0.0       1  0.0
 960  CURITIBA-23  2     0  1.000    -40    844.7     469.1     0.0     0.0     1.0            0.0     0.0     0.0     0.0  0.0
 964  CAXIAS---50  2     0  1.152    -33      0.0       0.0     0.0     0.0     1.0            0.0     0.0     0.0     0.0  0.0
 965  CAXIAS---23  2     0  1.000    -35    755.6     56.24     0.0     0.0     1.0            0.0     0.0     0.0     0.0  0.0
 976  GRAVATAI-50  2     0  1.147    -34      0.0       0.0     0.0     0.0     1.0            0.0     0.0     0.0     0.0  0.0
 995  ITA------50  2     0  1.117    -25      0.0       0.0     0.0     0.0     1.0            0.0     0.0     0.0     0.0  0.0
1015  JOINVILLE23  2     0  1.072    -42       70         2     0.0     0.0     1.0            0.0     0.0     0.0     0.0  0.0
1030  MACHADIN-50  2     0  1.112    -26      0.0       0.0     0.0     0.0     1.0            0.0     0.0     0.0     0.0  0.0
1047  SOSORIO--23  2     0  1.030   -6.9      0.0       0.0     0.0     0.0     1.0            0.0     0.0     0.0     0.0  0.0
1060  SSANTIAG-50  2     0  1.070    -15      0.0       0.0     0.0     0.0     1.0            0.0     0.0     0.0     0.0  0.0
1210  GRAVATAI-23  2     0  1.000    -35     1228       425     0.0     0.0     1.0            0.0     0.0     0.0     0.0  0.0
1503  ITAJUBA--50  1     0  1.061    -47      0.0       0.0     0.0     0.0     1.0            0.0     0.0     0.0     0.0  0.0
1504  ITAJUBA--13  1     0  1.192    -39      145        63     0.0     0.0     1.0            0.0     0.0     0.0     0.0  0.0
2458  CASCAVEL-23  2     0  1.000    -13      403       126     0.0     0.0     1.0            0.0     0.0     0.0     0.0  0.0
4501  B.PEIXE--23  3     0  1.125  0.953     31.4       7.1     0.0     0.0     1.0            0.0     0.0     0.0   -0.45  0.0
4521  ITIQUIRA-23  3     0  1.067   9.62      0.0       0.0     0.0     0.0     1.0            0.0     0.0     0.0     0.0  0.0
4522  RONDONOP-23  3     0  1.078   7.68      0.0       0.0     0.0     0.0     1.0            0.0     0.0     0.0    -0.2  0.0
4523  ITIQUIR--2G  3     2  1.010   14.7      0.0       0.0   46.47   -25.7     1.0             30     -42     0.0     0.0  0.0
4530  COXIPO-CE-1  3     2  1.020     18      0.0       0.0       0     -33     1.0          63.96   -54.5     0.0     0.0  0.0
4532  COXIPO-230   3     0  1.066     18      0.0       0.0     0.0     0.0     1.0            0.0     0.0     0.0     0.0  0.0
4533  COXIPO-138   3     0  1.032   16.4     75.4      16.1     0.0     0.0     1.0            0.0     0.0     0.0     0.0  0.0
4542  NOBRES-230   3     0  1.183   38.5      0.0       0.0     0.0     0.0     1.0            0.0     0.0     0.0     0.0  0.0
4552  N.MUTUM-230  3     0  1.201   32.7     12.6       1.2     0.0     0.0     1.0            0.0     0.0     0.0    -0.2  0.0
4562  SORRISO-230  3     0  1.242   26.8     23.8       7.4     0.0     0.0     1.0            0.0     0.0     0.0     0.0  0.0
4572  LUCAS-RV230  3     0  1.227   28.8       18       6.4     0.0     0.0     1.0            0.0     0.0     0.0     0.0  0.0
4582  SINOP-230    3     0  1.259   24.8     65.5      16.7     0.0     0.0     1.0            0.0     0.0     0.0     0.3  0.0
4592  MANSO-230    3     0  1.147   41.5      0.0       0.0     0.0     0.0     1.0            0.0     0.0     0.0     0.0  0.0
4596  CBA--GAS-2G  3     2  1.000   20.3      0.0       0.0   187.6     -79     1.0            160    -160     0.0     0.0  0.0
4623  RONDONOP-13  3     0  1.055   5.82    128.2     40.76     0.0     0.0     1.0            0.0     0.0     0.0     0.0  0.0
4703  CUIABA-138   3     0  1.021   15.3    182.1     29.75     0.0     0.0     1.0            0.0     0.0     0.0     0.0  0.0
4804  GUAPORE--2G  3     2  1.000   10.2      0.0       0.0   14.67   -22.9     1.0             59     -86     0.0     0.0  0.0
4805  GUAPORE--13  3     0  1.031   9.15      0.0       0.0     0.0     0.0     1.0            0.0     0.0     0.0     0.0  0.0
4807  JAURU-138    3     0  1.037   8.65    128.9      36.3     0.0     0.0     1.0            0.0     0.0     0.0     0.0  0.0
4862  JAURU-230    3     0  1.060   11.1      0.0       0.0     0.0     0.0     1.0            0.0     0.0     0.0    -0.3  0.0
-999
BRANCH DATA FOLLOWS                    171 ITEMS                                                                              
  86   48                 0.0  0.0071475       0.0                               1     0.0                                    
  86  122                 0.0    0.01913       0.0                               1     0.0                                    
  86  122                 0.0    0.01913       0.0                               1     0.0                                    
 100   20                 0.0    0.01264       0.0                               1     0.0                                    
 100  101             0.00172     0.0272     2.314                             0.0     0.0                                    
 100  101             0.00171      0.027     2.302                             0.0     0.0                                    
 100  210             0.00209    0.02935     2.546                             0.0     0.0                                    
 100  213                 0.0    0.02357       0.0                               1     0.0                                    
 100  535             0.00153      0.024     2.038                             0.0     0.0                                    
 101  102             0.00156     0.0246     2.085                             0.0     0.0                                    
 101  103             0.00152     0.0239     2.026                             0.0     0.0                                    
 102  120                 0.0    0.02403       0.0                               1     0.0                                    
 102 1503              0.0011     0.0191    1.6185                             0.0     0.0                                    
 103  123                 0.0    0.02419       0.0                               1     0.0                                    
 104  103             0.00196      0.031     2.649                             0.0     0.0                                    
 104 1503              0.0005     0.0082    0.6936                             0.0     0.0                                    
 106  104             0.00152     0.0239     2.027                             0.0     0.0                                    
 106  104             0.00152     0.0239     2.031                             0.0     0.0                                    
 106  140                 0.0    0.02923       0.0                               1     0.0                                    
 106  140                 0.0    0.02668       0.0                               1     0.0                                    
 122  103             0.00105    0.01619    1.3635                             0.0     0.0                                    
 123  120             0.00359    0.03945    0.6668                             0.0     0.0                                    
 126   86             0.00109    0.01826    0.5118                             0.0     0.0                                    
 126   86             0.00109    0.01824    0.5118                             0.0     0.0                                    
 126  120               0.006     0.0595     0.928                             0.0     0.0                                    
 126  120             0.00606     0.0602     0.938                             0.0     0.0                                    
 131   22                 0.0   0.088333       0.0                               1     0.0                                    
 134   12                 0.0    0.01335       0.0                           0.999     0.0                                    
 134  131             0.00092     0.0101     0.169                             0.0     0.0                                    
 134  396              0.0032    0.03509    0.5924                             0.0     0.0                                    
 136   16                 0.0    0.01536       0.0                               1     0.0                                    
 136  120             0.00436      0.043     0.666                             0.0     0.0                                    
 136  120             0.00436      0.043     0.666                             0.0     0.0                                    
 136  131             0.00348     0.0342     0.528                             0.0     0.0                                    
 136  134             0.00375     0.0413     0.699                             0.0     0.0                                    
 136  138             0.00649     0.0646     1.008                             0.0     0.0                                    
 136  138             0.00558     0.0619     1.057                             0.0     0.0                                    
 140  138             0.00652      0.065     1.014                             0.0     0.0                                    
 140  138             0.00558     0.0619     1.057                             0.0     0.0                                    
 210   18                 0.0  0.0066667       0.0                               1     0.0                                    
 210  217                 0.0     0.0172       0.0                               1     0.0                                    
 210  217                 0.0     0.0172       0.0                               1     0.0                                    
 210  370             0.00147     0.0232     1.966                             0.0     0.0                                    
 213  216             0.00219     0.0242     0.407                             0.0     0.0                                    
 216  396             0.00129    0.01414    0.2377                             0.0     0.0                                    
 217  216             0.00565    0.06248    1.0673                             0.0     0.0                                    
 217  218             0.00507     0.0561     0.956                             0.0     0.0                                    
 217  218             0.00507     0.0561     0.956                             0.0     0.0                                    
 218  234              0.0043    0.04799     0.822                             0.0     0.0                                    
 218  234              0.0043    0.04799     0.822                             0.0     0.0                                    
 219  234             0.00035    0.00433    0.0734                             0.0     0.0                                    
 219  234             0.00035    0.00433    0.0734                             0.0     0.0                                    
 220   35                 0.0   0.044965       0.0                           1.025     0.0                                    
 220  217             0.00226    0.02396   0.43235                             0.0     0.0                                    
 220  219             0.00726    0.07704    1.3801                             0.0     0.0                                    
 225  217                 0.0    0.02721       0.0                            0.95     0.0                                    
 225  217                 0.0    0.02938       0.0                            0.95     0.0                                    
 225  231               0.041     0.1976    0.3608                             0.0     0.0                                    
 225  231              0.0127     0.1362    0.4947                             0.0     0.0                                    
 228  219                 0.0    0.03595       0.0                               1     0.0                                    
 231 4501              0.0451     0.2169    0.4025                             0.0     0.0                                    
 231 4501              0.0149     0.1609     0.554                             0.0     0.0                                    
 233  210              0.0028     0.0399    3.5536                             0.0     0.0                                    
 233  320              0.0027     0.0387    3.4403                             0.0     0.0                                    
 234  233                 0.0    0.01113       0.0                               1     0.0                                    
 234  233                 0.0       0.01       0.0                               1     0.0                                    
 320  210             0.00125    0.01937    1.4996                             0.0     0.0                                    
 320  300                 0.0   0.013567       0.0                               1     0.0                                    
 320  360             0.00082    0.01256    0.9899                             0.0     0.0                                    
 325  301                 0.0   0.026325       0.0                               1     0.0                                    
 325  326                 0.0     0.0216       0.0                               1     0.0                                    
 325  326                 0.0     0.0216       0.0                               1     0.0                                    
 325  360               0.001    0.01519    1.1967                             0.0     0.0                                    
 325  370              0.0028     0.0484     4.195                             0.0     0.0                                    
 326  134              0.0007     0.0076   0.12287                             0.0     0.0                                    
 326  396              0.0024     0.0274    0.4547                             0.0     0.0                                    
 360  302                 0.0   0.019367       0.0                               1     0.0                                    
 370  303                 0.0   0.010575       0.0                               1     0.0                                    
 370  535            0.000931   0.013758     1.123                             0.0     0.0                                    
 396  305                 0.0      0.022       0.0                           1.025     0.0                                    
 535  500                 0.0    0.01025       0.0                               1     0.0                                    
 536  535                 0.0    0.01533       0.0                               1     0.0                                    
 536  535                 0.0     0.0142       0.0                               1     0.0                                    
 814  895             0.00032    0.01146       0.0                          0.9652     0.0                                    
 814  895              0.0003   0.011651       0.0                          0.9652     0.0                                    
 824  800                 0.0     0.0168       0.0                           1.024     0.0                                    
 824  933              0.0001    0.00124   0.15204                             0.0     0.0                                    
 824  933              0.0001    0.00126   0.15428                             0.0     0.0                                    
 834  934             0.02444    0.12652   0.21706                             0.0     0.0                                    
 839  840                 0.0     0.0664       0.0                               1     0.0                                    
 839  840                 0.0     0.0629       0.0                               1     0.0                                    
 839  898              0.0113     0.0699   0.12617                             0.0     0.0                                    
 839 1047              0.0122     0.0769    0.1381                             0.0     0.0                                    
 839 2458              0.0022     0.0109  0.018601                             0.0     0.0                                    
 839 2458              0.0017     0.0103  0.020537                             0.0     0.0                                    
 856  810                 0.0     0.0105       0.0                               1     0.0                                    
 856  933             0.00052    0.00654   0.80493                             0.0     0.0                                    
 856 1060             0.00056    0.00697   0.85746                             0.0     0.0                                    
 895  122             0.00308    0.03958    4.4484                             0.0     0.0                                    
 895  122             0.00308    0.03958    4.4484                             0.0     0.0                                    
 896  897              0.0005     0.0073    0.7806                             0.0     0.0                                    
 897  808                 0.0     0.0102       0.0                           1.024     0.0                                    
 898  848                 0.0     0.0636       0.0                               1     0.0                                    
 898 1047              0.0015     0.0089  0.016317                             0.0     0.0                                    
 933  895               0.002     0.0255    3.1272                             0.0     0.0                                    
 933  955             0.00162    0.02048    2.5017                             0.0     0.0                                    
 933  959               0.002     0.0269     3.364                             0.0     0.0                                    
 934  933             0.00031    0.01207       0.0                          0.9747     0.0                                    
 934 1047             0.03045    0.15738   0.27123                             0.0     0.0                                    
 934 1047             0.03041    0.15718   0.27089                             0.0     0.0                                    
 938  955            0.002556   0.029224     3.604                             0.0     0.0                                    
 938  959             0.00127    0.01603    1.9589                             0.0     0.0                                    
 939  938             0.00031     0.0115       0.0                          0.9586     0.0                                    
 939  938             0.00032    0.01163       0.0                          0.9586     0.0                                    
 939  938                 0.0    0.01277       0.0                          0.9586     0.0                                    
 939 1015             0.01271    0.06562   0.11305                             0.0     0.0                                    
 939 1015             0.01283    0.06564   0.11522                             0.0     0.0                                    
 955  964            0.001877   0.023467    2.8724                             0.0     0.0                                    
 959  895              0.0005     0.0044    0.4758                             0.0     0.0                                    
 960  834              0.0221    0.11475   0.19687                             0.0     0.0                                    
 960  959             0.00032    0.01163       0.0                          0.9917     0.0                                    
 960  959             0.00031    0.01166       0.0                          0.9917     0.0                                    
 960 1015             0.01892    0.09776   0.16845                             0.0     0.0                                    
 960 1015             0.01895    0.09704   0.17029                             0.0     0.0                                    
 964  976            0.000733   0.009164    1.1217                             0.0     0.0                                    
 965  964              0.0002    0.01211       0.0                          0.9717     0.0                                    
 965  964              0.0002    0.01233       0.0                          0.9717     0.0                                    
 976  995             0.00282    0.03852     4.937                             0.0     0.0                                    
 995  904                 0.0   0.011538       0.0                               1     0.0                                    
 995  964            0.001643   0.030339    3.5488                             0.0     0.0                                    
 995 1030             0.00073     0.0092    1.1226                             0.0     0.0                                    
 995 1060             0.00172     0.0217    2.6516                             0.0     0.0                                    
1030  915                 0.0   0.020655       0.0                               1     0.0                                    
1030  955             0.00047     0.0059   0.71818                             0.0     0.0                                    
1047  919                 0.0   0.017022       0.0                           1.025     0.0                                    
1060  897             0.00076    0.01171    1.2458                             0.0     0.0                                    
1060  925                 0.0    0.01515       0.0                           1.024     0.0                                    
1210  976              0.0003    0.01219       0.0                            1.01     0.0                                    
1210  976             0.00039    0.01138       0.0                            1.01     0.0                                    
1210  976             0.00036    0.01217       0.0                            1.01     0.0                                    
1503 1504                 0.0      0.052       0.0                          0.9986     0.0                                    
2458  896                 0.0     0.0127       0.0                          0.9938     0.0                                    
4501 4522              0.0376     0.2068    0.3566                             0.0     0.0                                    
4501 4522              0.0164     0.1246     0.615                             0.0     0.0                                    
4521 4523                 0.0     0.2071       0.0                               1     0.0                                    
4522 4521              0.0153      0.076    0.1425                             0.0     0.0                                    
4522 4532              0.0325     0.1792    0.3275                             0.0     0.0                                    
4522 4532              0.0325     0.1792    0.3275                             0.0     0.0                                    
4522 4623                 0.0     0.0795       0.0                               1     0.0                                    
4522 4623                 0.0     0.0795       0.0                               1     0.0                                    
4532 4530                 0.0      0.143       0.0                               1     0.0                                    
4532 4533                 0.0      0.086       0.0                               1     0.0                                    
4532 4533                 0.0      0.086       0.0                               1     0.0                                    
4532 4533                 0.0      0.086       0.0                               1     0.0                                    
4532 4542              0.0162     0.0968    0.1915                             0.0     0.0                                    
4533 4596                 0.0   0.037635       0.0                               1     0.0                                    
4542 4552              0.0183     0.1093     0.186                             0.0     0.0                                    
4552 4572               0.014     0.0838      0.17                             0.0     0.0                                    
4562 4572              0.0094     0.0559   0.10644                             0.0     0.0                                    
4562 4582              0.0124     0.0738    0.1328                             0.0     0.0                                    
4592   21                 0.0      0.064       0.0                               1     0.0                                    
4592 4542                0.01     0.0617     0.126                             0.0     0.0                                    
4623 4533              0.1706      0.455    0.1139                             0.0     0.0                                    
4703 4533               0.009     0.0231    0.0058                             0.0     0.0                                    
4703 4533               0.009     0.0231    0.0058                             0.0     0.0                                    
4805 4804                 0.0    0.13333       0.0                               1     0.0                                    
4805 4807             0.03089    0.08134   0.02085                             0.0     0.0                                    
4805 4807             0.03089    0.08134   0.02085                             0.0     0.0                                    
4862 4532              0.0257     0.2368    0.9742                             0.0     0.0                                    
4862 4532              0.0257     0.2368    0.9742                             0.0     0.0                                    
4862 4807                 0.0     0.0405       0.0                               1     0.0                                    
-999
END OF DATA
